<?xml version="1.0" encoding="UTF-8"?>
<!-- generated on 2019-05-05 09:15:24.937904 by $Id$
  options: -n grid.net.xml -r grid.rou.xml -e 100 -l
-->
<routes xmlns:xsi="http://www.w3.org/2001/XMLSchema-instance" xsi:noNamespaceSchemaLocation="http://sumo.dlr.de/xsd/routes_file.xsd">
    <trip id="0" depart="0.00" from="F3G3" to="E2E1"/>
    <trip id="1" depart="1.00" from="G1F1" to="C6C7"/>
    <trip id="2" depart="2.00" from="C4B4" to="B5B4"/>
    <trip id="3" depart="3.00" from="C2C1" to="D7C7"/>
    <trip id="4" depart="4.00" from="A1A2" to="C7B7"/>
    <trip id="5" depart="5.00" from="B2A2" to="F3F2"/>
    <trip id="6" depart="6.00" from="G3H3" to="E6E5"/>
    <trip id="7" depart="7.00" from="G1G0" to="C4D4"/>
    <trip id="8" depart="8.00" from="B6C6" to="B5B4"/>
    <trip id="9" depart="9.00" from="D1D0" to="A1A2"/>
    <trip id="10" depart="10.00" from="H1H0" to="B3A3"/>
    <trip id="11" depart="11.00" from="C1C2" to="G3G4"/>
    <trip id="12" depart="12.00" from="B0A0" to="G1G0"/>
    <trip id="13" depart="13.00" from="C5C6" to="D4D5"/>
    <trip id="14" depart="14.00" from="C1C0" to="C5D5"/>
    <trip id="15" depart="15.00" from="F1G1" to="E1F1"/>
    <trip id="16" depart="16.00" from="B2B3" to="D1C1"/>
    <trip id="17" depart="17.00" from="A3A2" to="H4H5"/>
    <trip id="18" depart="18.00" from="A6B6" to="F2G2"/>
    <trip id="19" depart="19.00" from="G5G6" to="A7A6"/>
    <trip id="20" depart="20.00" from="G4G3" to="E5E6"/>
    <trip id="21" depart="21.00" from="A3A4" to="B4A4"/>
    <trip id="22" depart="22.00" from="B6C6" to="E3E4"/>
    <trip id="23" depart="23.00" from="F1F2" to="C2C3"/>
    <trip id="24" depart="24.00" from="A7A6" to="G6G7"/>
    <trip id="25" depart="25.00" from="C1C0" to="F4F5"/>
    <trip id="26" depart="26.00" from="C4C3" to="B0B1"/>
    <trip id="27" depart="27.00" from="B2A2" to="E2D2"/>
    <trip id="28" depart="28.00" from="E7E6" to="D1E1"/>
    <trip id="29" depart="29.00" from="E6D6" to="G2F2"/>
    <trip id="30" depart="30.00" from="B5C5" to="B2C2"/>
    <trip id="31" depart="31.00" from="G4F4" to="G3G2"/>
    <trip id="32" depart="32.00" from="C2B2" to="A1A2"/>
    <trip id="33" depart="33.00" from="F5F6" to="B3B4"/>
    <trip id="34" depart="34.00" from="B7A7" to="H0H1"/>
    <trip id="35" depart="35.00" from="G3H3" to="G5H5"/>
    <trip id="36" depart="36.00" from="G1G2" to="A3A2"/>
    <trip id="37" depart="37.00" from="A1A0" to="E6D6"/>
    <trip id="38" depart="38.00" from="G6H6" to="A2A3"/>
    <trip id="39" depart="39.00" from="B6C6" to="A3A4"/>
    <trip id="40" depart="40.00" from="H4G4" to="E7D7"/>
    <trip id="41" depart="41.00" from="A5A6" to="E3D3"/>
    <trip id="42" depart="42.00" from="F0G0" to="F6G6"/>
    <trip id="43" depart="43.00" from="C6B6" to="G6H6"/>
    <trip id="44" depart="44.00" from="G6G7" to="B5A5"/>
    <trip id="45" depart="45.00" from="C5D5" to="D5D4"/>
    <trip id="46" depart="46.00" from="G2F2" to="E5E4"/>
    <trip id="47" depart="47.00" from="C3B3" to="D2D3"/>
    <trip id="48" depart="48.00" from="E0E1" to="G0F0"/>
    <trip id="49" depart="49.00" from="F6G6" to="F3F4"/>
    <trip id="50" depart="50.00" from="G1H1" to="G5G4"/>
    <trip id="51" depart="51.00" from="B2A2" to="G3G2"/>
    <trip id="52" depart="52.00" from="E5E6" to="D4D5"/>
    <trip id="53" depart="53.00" from="D7E7" to="E1E0"/>
    <trip id="54" depart="54.00" from="C7C6" to="D6E6"/>
    <trip id="55" depart="55.00" from="B5B6" to="F0F1"/>
    <trip id="56" depart="56.00" from="C7D7" to="A7A6"/>
    <trip id="57" depart="57.00" from="G2F2" to="H1G1"/>
    <trip id="58" depart="58.00" from="C7C6" to="A2B2"/>
    <trip id="59" depart="59.00" from="D1D2" to="E7F7"/>
    <trip id="60" depart="60.00" from="D2E2" to="B1B2"/>
    <trip id="61" depart="61.00" from="B2A2" to="B4B5"/>
    <trip id="62" depart="62.00" from="E3E4" to="G6G5"/>
    <trip id="63" depart="63.00" from="A7A6" to="D5D6"/>
    <trip id="64" depart="64.00" from="D6E6" to="D7E7"/>
    <trip id="65" depart="65.00" from="C3C4" to="B2B3"/>
    <trip id="66" depart="66.00" from="G3G2" to="B1B2"/>
    <trip id="67" depart="67.00" from="F1F2" to="C4C5"/>
    <trip id="68" depart="68.00" from="G6F6" to="E0E1"/>
    <trip id="69" depart="69.00" from="A6A7" to="E4F4"/>
    <trip id="70" depart="70.00" from="G0F0" to="C2C3"/>
    <trip id="71" depart="71.00" from="G3G2" to="D3C3"/>
    <trip id="72" depart="72.00" from="H3H2" to="H6H5"/>
    <trip id="73" depart="73.00" from="C6C7" to="G5G6"/>
    <trip id="74" depart="74.00" from="E4E5" to="F3F2"/>
    <trip id="75" depart="75.00" from="F3F2" to="B3B4"/>
    <trip id="76" depart="76.00" from="G4F4" to="F5E5"/>
    <trip id="77" depart="77.00" from="B0C0" to="G3G2"/>
    <trip id="78" depart="78.00" from="B2A2" to="C6D6"/>
    <trip id="79" depart="79.00" from="E3E4" to="G7H7"/>
    <trip id="80" depart="80.00" from="E1F1" to="G5F5"/>
    <trip id="81" depart="81.00" from="D2D1" to="F2G2"/>
    <trip id="82" depart="82.00" from="F0E0" to="E6D6"/>
    <trip id="83" depart="83.00" from="F6F5" to="E2E3"/>
    <trip id="84" depart="84.00" from="C3C2" to="G0G1"/>
    <trip id="85" depart="85.00" from="F3F2" to="C4D4"/>
    <trip id="86" depart="86.00" from="B5A5" to="F2G2"/>
    <trip id="87" depart="87.00" from="F5E5" to="D5D6"/>
    <trip id="88" depart="88.00" from="B3B2" to="F1E1"/>
    <trip id="89" depart="89.00" from="E4E3" to="F4G4"/>
    <trip id="90" depart="90.00" from="E1E2" to="G4F4"/>
    <trip id="91" depart="91.00" from="E2F2" to="H5H4"/>
    <trip id="92" depart="92.00" from="C0D0" to="C1C2"/>
    <trip id="93" depart="93.00" from="G5H5" to="A1B1"/>
    <trip id="94" depart="94.00" from="D5D4" to="F1F0"/>
    <trip id="95" depart="95.00" from="C5C4" to="D3E3"/>
    <trip id="96" depart="96.00" from="F3G3" to="E0D0"/>
    <trip id="97" depart="97.00" from="F6F7" to="B6B7"/>
    <trip id="98" depart="98.00" from="D6D5" to="G7F7"/>
    <trip id="99" depart="99.00" from="G5G6" to="E6F6"/>
</routes>
